LTspice 24.0.9 for Windows
Circuit: * C:\Users\Michael\Documents\projects\xplr\BatteryHealthMonitor\schematic\simulation\sim.asc
Start Time: Thu Apr  4 21:11:46 2024
solver = Normal
Maximum thread count: 16
tnom = 27
temp = 27
method = modified trap
.dc sweep increment has wrong sign -- fixing...
Total elapsed time: 0.070 seconds.

