LTspice 24.0.9 for Windows
Circuit: * C:\Users\Michael\Documents\projects\xplr\BatteryHealthMonitor\schematic\simulation\sim.asc
Start Time: Sun Apr 21 17:47:00 2024
solver = Normal
Maximum thread count: 16
tnom = 27
temp = 27
method = modified trap
Total elapsed time: 0.018 seconds.

