LTspice 24.0.9 for Windows
Circuit: * C:\Users\Michael\Documents\projects\xplr\BatteryHealthMonitor\schematic\simulation\sim.asc
Start Time: Thu Apr  3 18:21:39 2025
solver = Normal
Maximum thread count: 16
tnom = 27
temp = 27
method = modified trap
.dc: Increment so large that there's only one step.
Total elapsed time: 0.039 seconds.

