LTspice 24.0.9 for Windows
Circuit: .title KiCad schematic
Start Time: Mon Jan 20 21:46:06 2025
Fatal Error: Missing node(s) for uniform RC-line U3
